EESchema Schematic File Version 4
EELAYER 30 0
EELAYER END
$Descr A4 11693 8268
encoding utf-8
Sheet 1 1
Title ""
Date ""
Rev ""
Comp ""
Comment1 ""
Comment2 ""
Comment3 ""
Comment4 ""
$EndDescr
$Comp
L pspice:QNPN Q1
U 1 1 5EEEFCAB
P 8150 3300
F 0 "Q1" V 8514 3300 50  0000 C CNN
F 1 "QNPN" V 8423 3300 50  0000 C CNN
F 2 "" H 8150 3300 50  0001 C CNN
F 3 "~" H 8150 3300 50  0001 C CNN
	1    8150 3300
	1    0    0    -1  
$EndComp
Wire Wire Line
	7650 3300 7850 3300
Wire Wire Line
	8300 2950 8300 2900
Wire Wire Line
	8300 2900 8500 2900
Wire Wire Line
	8300 2900 8300 2350
Connection ~ 8300 2900
Wire Wire Line
	8050 3650 8050 3800
Wire Wire Line
	8050 3800 8300 3800
Wire Wire Line
	8300 3650 8300 3800
Text GLabel 7650 2050 0    50   Input ~ 0
VCC
Wire Wire Line
	7650 2050 8300 2050
Wire Wire Line
	1100 900  1350 900 
$Comp
L pspice:0 #GND01
U 1 1 5EF0D89F
P 1100 1850
F 0 "#GND01" H 1100 1750 50  0001 C CNN
F 1 "0" H 1100 1939 50  0000 C CNN
F 2 "" H 1100 1850 50  0001 C CNN
F 3 "~" H 1100 1850 50  0001 C CNN
	1    1100 1850
	1    0    0    -1  
$EndComp
Text GLabel 2450 900  2    50   Input ~ 0
VCC
Wire Wire Line
	2450 900  2150 900 
$Comp
L pspice:0 #GND02
U 1 1 5EF0D8A7
P 2150 1850
F 0 "#GND02" H 2150 1750 50  0001 C CNN
F 1 "0" H 2150 1939 50  0000 C CNN
F 2 "" H 2150 1850 50  0001 C CNN
F 3 "~" H 2150 1850 50  0001 C CNN
	1    2150 1850
	1    0    0    -1  
$EndComp
Text Notes 7600 1050 0    50   ~ 0
.model qnpn npn ( IS=7.59E-15 VAF=73.4 BF=480 IKF=0.0962 NE=1.2665\n+ ISE=3.278E-15 IKR=0.03 ISC=2.00E-13 NC=1.2 NR=1 BR=5 RC=0.25 CJC=6.33E-12\n+ FC=0.5 MJC=0.33 VJC=0.65 CJE=1.25E-11 MJE=0.55 VJE=0.65 TF=4.26E-10\n+ ITF=0.6 VTF=3 XTF=20 RB=100 IRB=0.0001 RBM=10 RE=0.5 TR=1.50E-07)\n.tran 100u 200m
Wire Wire Line
	2150 900  2150 1150
Wire Wire Line
	2150 1550 2150 1850
Wire Wire Line
	1100 1550 1100 1850
Wire Wire Line
	1100 900  1100 1150
Wire Wire Line
	7150 3300 7350 3300
Text GLabel 7150 3300 0    50   Input ~ 0
V_in1
Text GLabel 1350 900  2    50   Input ~ 0
V_in
$Comp
L Simulation_SPICE:VDC V2
U 1 1 5EF0D906
P 2150 1350
F 0 "V2" H 2280 1441 50  0000 L CNN
F 1 "VDC" H 2280 1350 50  0000 L CNN
F 2 "" H 2150 1350 50  0001 C CNN
F 3 "~" H 2150 1350 50  0001 C CNN
F 4 "Y" H 2150 1350 50  0001 L CNN "Spice_Netlist_Enabled"
F 5 "V" H 2150 1350 50  0001 L CNN "Spice_Primitive"
F 6 "dc(5)" H 2280 1259 50  0000 L CNN "Spice_Model"
	1    2150 1350
	1    0    0    -1  
$EndComp
$Comp
L Device:R R1
U 1 1 5EEEF6CA
P 7500 3300
F 0 "R1" V 7293 3300 50  0000 C CNN
F 1 "25k" V 7384 3300 50  0000 C CNN
F 2 "" V 7430 3300 50  0001 C CNN
F 3 "~" H 7500 3300 50  0001 C CNN
	1    7500 3300
	0    1    1    0   
$EndComp
$Comp
L Device:R R2
U 1 1 5EEEF7C9
P 8300 2200
F 0 "R2" H 8230 2154 50  0000 R CNN
F 1 "10k" H 8230 2245 50  0000 R CNN
F 2 "" V 8230 2200 50  0001 C CNN
F 3 "~" H 8300 2200 50  0001 C CNN
	1    8300 2200
	-1   0    0    1   
$EndComp
Connection ~ 8300 3800
Connection ~ 8300 2050
$Comp
L Device:C C3
U 1 1 5EF41D37
P 9500 2750
F 0 "C3" H 9615 2796 50  0000 L CNN
F 1 "2n" H 9615 2705 50  0000 L CNN
F 2 "" H 9538 2600 50  0001 C CNN
F 3 "~" H 9500 2750 50  0001 C CNN
	1    9500 2750
	1    0    0    -1  
$EndComp
Text Label 9500 2500 0    50   ~ 0
Vout
Wire Wire Line
	8950 4250 8950 4400
Connection ~ 8950 4250
Wire Wire Line
	9500 4250 8950 4250
Wire Wire Line
	9500 2900 9500 3500
Wire Wire Line
	9500 2600 9500 2500
Wire Wire Line
	8950 2500 8950 2350
Connection ~ 8950 2500
Wire Wire Line
	8950 2500 9500 2500
Wire Wire Line
	8950 4150 8950 4250
Wire Wire Line
	8300 3800 8950 3800
Wire Wire Line
	8950 3800 8950 3850
Connection ~ 8950 3800
$Comp
L pspice:0 #GND03
U 1 1 5EEF2367
P 8950 4400
F 0 "#GND03" H 8950 4300 50  0001 C CNN
F 1 "0" H 8950 4489 50  0000 C CNN
F 2 "" H 8950 4400 50  0001 C CNN
F 3 "~" H 8950 4400 50  0001 C CNN
	1    8950 4400
	1    0    0    -1  
$EndComp
Wire Wire Line
	8950 3450 8950 3800
Connection ~ 8950 3450
Wire Wire Line
	8950 3450 8950 3250
Wire Wire Line
	8700 3450 8950 3450
Wire Wire Line
	8700 3250 8700 3450
Wire Wire Line
	8950 2550 8950 2500
Wire Wire Line
	8300 2050 8950 2050
$Comp
L pspice:QNPN Q2
U 1 1 5EEF044B
P 8800 2900
F 0 "Q2" H 9027 2946 50  0000 L CNN
F 1 "QNPN" H 9027 2855 50  0000 L CNN
F 2 "" H 8800 2900 50  0001 C CNN
F 3 "~" H 8800 2900 50  0001 C CNN
	1    8800 2900
	1    0    0    -1  
$EndComp
$Comp
L Device:R R3
U 1 1 5EEEF921
P 8950 2200
F 0 "R3" H 9020 2246 50  0000 L CNN
F 1 "1k" H 9020 2155 50  0000 L CNN
F 2 "" V 8880 2200 50  0001 C CNN
F 3 "~" H 8950 2200 50  0001 C CNN
	1    8950 2200
	1    0    0    -1  
$EndComp
Text GLabel 3350 900  2    50   Input ~ 0
V_in1
Wire Wire Line
	3100 900  3350 900 
$Comp
L pspice:0 #GND04
U 1 1 5EEF5972
P 3100 1850
F 0 "#GND04" H 3100 1750 50  0001 C CNN
F 1 "0" H 3100 1939 50  0000 C CNN
F 2 "" H 3100 1850 50  0001 C CNN
F 3 "~" H 3100 1850 50  0001 C CNN
	1    3100 1850
	1    0    0    -1  
$EndComp
Wire Wire Line
	3100 1550 3100 1850
Wire Wire Line
	3100 900  3100 1150
$Comp
L Simulation_SPICE:VTRRANDOM V3
U 1 1 5EEF597D
P 3100 1350
F 0 "V3" H 3230 1441 50  0000 L CNN
F 1 "VTRRANDOM" H 3230 1350 50  0000 L CNN
F 2 "" H 3100 1350 50  0001 C CNN
F 3 "~" H 3100 1350 50  0001 C CNN
F 4 "Y" H 3100 1350 50  0001 L CNN "Spice_Netlist_Enabled"
F 5 "V" H 3100 1350 50  0001 L CNN "Spice_Primitive"
F 6 "trrandom(2 5m 0 1 1.5)" H 2750 1150 50  0000 L CNN "Spice_Model"
	1    3100 1350
	1    0    0    -1  
$EndComp
$Comp
L Simulation_SPICE:VPULSE V1
U 1 1 5EEF6329
P 1100 1350
F 0 "V1" H 1230 1441 50  0000 L CNN
F 1 "VPULSE" H 1230 1350 50  0000 L CNN
F 2 "" H 1100 1350 50  0001 C CNN
F 3 "~" H 1100 1350 50  0001 C CNN
F 4 "Y" H 1100 1350 50  0001 L CNN "Spice_Netlist_Enabled"
F 5 "V" H 1100 1350 50  0001 L CNN "Spice_Primitive"
F 6 "pulse(0 5 2n 2n 2n 50m 100m)" H 750 1150 50  0000 L CNN "Spice_Model"
	1    1100 1350
	1    0    0    -1  
$EndComp
$Comp
L Device:R Rload1
U 1 1 5EEF72A3
P 10050 3150
F 0 "Rload1" H 10120 3196 50  0000 L CNN
F 1 "10k" H 10120 3105 50  0000 L CNN
F 2 "" V 9980 3150 50  0001 C CNN
F 3 "~" H 10050 3150 50  0001 C CNN
	1    10050 3150
	1    0    0    -1  
$EndComp
Wire Wire Line
	10050 3000 10050 2500
Wire Wire Line
	10050 2500 9500 2500
Connection ~ 9500 2500
Wire Wire Line
	9500 3500 10050 3500
Wire Wire Line
	10050 3500 10050 3300
Connection ~ 9500 3500
$Comp
L Device:R R4
U 1 1 5EEF7206
P 8950 4000
F 0 "R4" H 9020 4046 50  0000 L CNN
F 1 "20" H 9020 3955 50  0000 L CNN
F 2 "" V 8880 4000 50  0001 C CNN
F 3 "~" H 8950 4000 50  0001 C CNN
	1    8950 4000
	1    0    0    -1  
$EndComp
Wire Wire Line
	9500 3500 9500 4250
$EndSCHEMATC
